Version 4
SHEET 1 984 680
WIRE 160 64 -32 64
WIRE 288 64 224 64
WIRE 384 64 288 64
WIRE 464 64 384 64
WIRE 592 64 528 64
WIRE 704 64 592 64
WIRE 816 64 704 64
WIRE 928 64 880 64
WIRE -32 112 -32 64
WIRE 384 112 384 64
WIRE 592 112 592 64
WIRE 704 112 704 64
WIRE 928 112 928 64
WIRE 288 128 288 64
WIRE -32 224 -32 192
WIRE 288 224 288 192
WIRE 288 224 -32 224
WIRE 384 224 384 192
WIRE 384 224 288 224
WIRE 592 224 592 176
WIRE 592 224 384 224
WIRE 704 224 704 192
WIRE 704 224 592 224
WIRE 928 224 928 192
WIRE 928 224 704 224
WIRE -32 256 -32 224
FLAG -32 256 0
SYMBOL cap 224 48 R90
WINDOW 0 0 32 VBottom 2
WINDOW 3 32 32 VTop 2
SYMATTR InstName C1
SYMATTR Value 30p
SYMBOL cap 272 128 R0
SYMATTR InstName C2
SYMATTR Value 270p
SYMBOL ind 368 96 R0
SYMATTR InstName L1
SYMATTR Value 100n
SYMBOL cap 528 48 R90
WINDOW 0 0 32 VBottom 2
WINDOW 3 32 32 VTop 2
SYMATTR InstName C3
SYMATTR Value 10p
SYMBOL cap 576 112 R0
SYMATTR InstName C4
SYMATTR Value 270p
SYMBOL ind 688 96 R0
SYMATTR InstName L2
SYMATTR Value 100n
SYMBOL cap 880 48 R90
WINDOW 0 0 32 VBottom 2
WINDOW 3 32 32 VTop 2
SYMATTR InstName C5
SYMATTR Value 30p
SYMBOL res 912 96 R0
SYMATTR InstName R2
SYMATTR Value 75
SYMBOL voltage -32 96 R0
WINDOW 3 -435 48 Left 2
WINDOW 123 0 0 Left 0
WINDOW 39 0 0 Left 0
SYMATTR InstName V1
SYMATTR Value PULSE(0 5 0 1n 1n 17.81n 35.62n)
TEXT -472 352 Left 2 !.tran 0 4u 3u 10p
