Version 4
SHEET 1 2496 912
WIRE 832 -528 800 -528
WIRE 976 -528 912 -528
WIRE 1040 -528 976 -528
WIRE 1184 -528 1120 -528
WIRE 1328 -528 1184 -528
WIRE 1328 -480 1328 -528
WIRE 800 -464 800 -528
WIRE 976 -464 976 -528
WIRE 1184 -464 1184 -528
WIRE 800 -352 800 -400
WIRE 976 -352 976 -400
WIRE 976 -352 800 -352
WIRE 1184 -352 1184 -400
WIRE 1184 -352 976 -352
WIRE 1328 -352 1328 -400
WIRE 1328 -352 1184 -352
WIRE -112 -320 -208 -320
WIRE 32 -320 -112 -320
WIRE 160 -320 32 -320
WIRE 272 -320 272 -384
WIRE 272 -320 160 -320
WIRE -208 -256 -208 -320
WIRE 64 -224 32 -224
WIRE 160 -224 160 -240
WIRE 160 -224 128 -224
WIRE 272 -224 272 -320
WIRE -112 -208 -112 -240
WIRE -32 -208 -32 -272
WIRE -32 -208 -112 -208
WIRE -112 -192 -112 -208
WIRE 32 -176 32 -224
WIRE -208 -144 -208 -176
WIRE -176 -144 -208 -144
WIRE 272 -112 272 -144
WIRE 448 -112 272 -112
WIRE 528 -112 448 -112
WIRE 656 -112 656 -160
WIRE 656 -112 592 -112
WIRE 736 -112 736 -160
WIRE 864 -112 736 -112
WIRE 1088 -112 944 -112
WIRE 1216 -112 1152 -112
WIRE 1296 -112 1216 -112
WIRE 1568 -112 1360 -112
WIRE 1600 -112 1568 -112
WIRE 1744 -112 1680 -112
WIRE 1808 -112 1744 -112
WIRE 1952 -112 1888 -112
WIRE 2096 -112 1952 -112
WIRE -208 -64 -208 -144
WIRE 656 -64 656 -112
WIRE 736 -64 736 -112
WIRE 2096 -64 2096 -112
WIRE 448 -48 448 -112
WIRE 1568 -48 1568 -112
WIRE 1744 -48 1744 -112
WIRE 1952 -48 1952 -112
WIRE -112 -32 -112 -96
WIRE 1216 -32 1216 -112
WIRE 272 -16 272 -112
WIRE -336 16 -464 16
WIRE -208 16 -272 16
WIRE -176 16 -208 16
WIRE 160 64 160 -224
WIRE 224 64 160 64
WIRE 448 64 448 16
WIRE 1216 64 1216 48
WIRE 1216 64 800 64
WIRE 1568 64 1568 16
WIRE 1568 64 1216 64
WIRE 1744 64 1744 16
WIRE 1744 64 1568 64
WIRE 1952 64 1952 16
WIRE 1952 64 1744 64
WIRE 2096 64 2096 16
WIRE 2096 64 1952 64
WIRE -544 80 -544 16
WIRE -112 80 -112 64
WIRE 272 112 272 80
FLAG 272 112 0
FLAG 448 64 0
FLAG 800 64 0
FLAG 800 -352 0
FLAG 1568 64 0
FLAG 272 -464 0
FLAG -544 160 0
FLAG -208 96 0
FLAG -272 -144 0
FLAG -112 160 0
FLAG 160 144 0
FLAG 32 -96 0
SYMBOL ind 256 -240 R0
SYMATTR InstName L1
SYMATTR Value 15µ
SYMBOL cap 432 -48 R0
SYMATTR InstName C1
SYMATTR Value 120p
SYMBOL cap 592 -128 R90
WINDOW 0 0 32 VBottom 0
WINDOW 3 32 32 VTop 0
SYMATTR InstName C2
SYMATTR Value 100p
SYMBOL nmos 224 -16 R0
SYMATTR InstName M1
SYMATTR Value RD16HHF1
SYMBOL ind 928 -544 R90
WINDOW 0 5 56 VBottom 2
WINDOW 3 32 56 VTop 2
SYMATTR InstName L3
SYMATTR Value 75n
SYMBOL ind 1136 -544 R90
WINDOW 0 5 56 VBottom 2
WINDOW 3 32 56 VTop 2
SYMATTR InstName L4
SYMATTR Value 91n
SYMBOL cap 784 -464 R0
SYMATTR InstName C3
SYMATTR Value 330p
SYMBOL cap 960 -464 R0
SYMATTR InstName C4
SYMATTR Value 910p
SYMBOL cap 1168 -464 R0
SYMATTR InstName C5
SYMATTR Value 750p
SYMBOL res 1312 -496 R0
SYMATTR InstName R2
SYMATTR Value 75
SYMBOL cap 1152 -128 R90
WINDOW 0 0 32 VBottom 2
WINDOW 3 32 32 VTop 2
SYMATTR InstName C6
SYMATTR Value 200p
SYMBOL ind 1200 -48 R0
SYMATTR InstName L5
SYMATTR Value 130n
SYMBOL cap 1360 -128 R90
WINDOW 0 0 32 VBottom 2
WINDOW 3 32 32 VTop 2
SYMATTR InstName C7
SYMATTR Value 110p
SYMBOL ind 1696 -128 R90
WINDOW 0 5 56 VBottom 2
WINDOW 3 32 56 VTop 2
SYMATTR InstName L6
SYMATTR Value 390n
SYMBOL ind 1904 -128 R90
WINDOW 0 5 56 VBottom 2
WINDOW 3 32 56 VTop 2
SYMATTR InstName L7
SYMATTR Value 390n
SYMBOL cap 1552 -48 R0
SYMATTR InstName C8
SYMATTR Value 120p
SYMBOL cap 1728 -48 R0
SYMATTR InstName C9
SYMATTR Value 220p
SYMBOL cap 1936 -48 R0
SYMATTR InstName C10
SYMATTR Value 120p
SYMBOL res 2080 -80 R0
SYMATTR InstName R5
SYMATTR Value 50
SYMBOL ind 752 -176 R90
WINDOW 0 5 56 VBottom 2
WINDOW 3 32 56 VTop 2
SYMATTR InstName L8
SYMATTR Value 1.5µ
SYMBOL ind 752 -80 R90
WINDOW 0 5 56 VBottom 2
WINDOW 3 32 56 VTop 2
SYMATTR InstName L9
SYMATTR Value 500n
SYMBOL res 960 -128 R90
WINDOW 0 0 56 VBottom 2
WINDOW 3 32 56 VTop 2
SYMATTR InstName R6
SYMATTR Value 0.05
SYMBOL voltage 272 -368 R180
WINDOW 0 24 96 Left 2
WINDOW 3 24 16 Left 2
WINDOW 123 0 0 Left 0
WINDOW 39 0 0 Left 0
SYMATTR InstName V1
SYMATTR Value 13.3
SYMBOL voltage -544 64 R0
WINDOW 123 24 132 Left 0
WINDOW 39 -112 115 Left 2
WINDOW 3 -491 83 Left 2
SYMATTR SpiceLine Rser=0
SYMATTR Value PULSE(0 3.3 0 1n 1n {0.5/freq} {1/freq})
SYMATTR InstName Vgen1
SYMBOL res -448 0 R90
WINDOW 0 0 56 VBottom 2
WINDOW 3 32 56 VTop 2
SYMATTR InstName R17
SYMATTR Value 330
SYMBOL npn -176 -192 R0
SYMATTR InstName Q4
SYMATTR Value LG
SYMBOL npn -176 -32 R0
SYMATTR InstName Q5
SYMATTR Value LG
SYMBOL res -128 -336 R0
SYMATTR InstName R18
SYMATTR Value 660
SYMBOL res -224 -80 R0
SYMATTR InstName R19
SYMATTR Value 10k
SYMBOL res -224 0 R0
SYMATTR InstName R20
SYMATTR Value 1.5k
SYMBOL cap -208 -160 R90
WINDOW 0 0 32 VBottom 2
WINDOW 3 32 32 VTop 2
SYMATTR InstName C14
SYMATTR Value 0.022µ
SYMBOL cap -272 0 R90
WINDOW 0 0 32 VBottom 2
WINDOW 3 32 32 VTop 2
SYMATTR InstName C15
SYMATTR Value 0.022µ
SYMBOL res -224 -272 R0
SYMATTR InstName R21
SYMATTR Value 22k
SYMBOL cap 128 -240 R90
WINDOW 0 0 32 VBottom 2
WINDOW 3 32 32 VTop 2
SYMATTR InstName C11
SYMATTR Value 0.022µ
SYMBOL res 144 -336 R0
SYMATTR InstName R1
SYMATTR Value 3.3k
SYMBOL res 144 48 R0
SYMATTR InstName R3
SYMATTR Value 2.2k
SYMBOL res -128 64 R0
SYMATTR InstName R4
SYMATTR Value 50
SYMBOL npn -32 -320 R0
SYMATTR InstName Q1
SYMATTR Value LG
SYMBOL res 16 -192 R0
SYMATTR InstName R7
SYMATTR Value 165
SYMATTR SpiceLine pwr=0.5
TEXT 0 368 Left 2 !.model MySwitch SW(Ron= .0003250389 Roff=10000 Vt=3.5 Vh=0)
TEXT 0 400 Left 2 !.tran 0 10m 0u 100p startup
TEXT 32 528 Left 2 ;ClassE - www.TonneSoftware.com
TEXT 0 336 Left 2 !.model RD16HHF1 VDMOS(Rg=987m Rd=0m Rs=111m Vto=3.19 Kp=0.495 Lambda=0 mtriode=0.804 subthres=2.37e-02 Cgdmax=11.6p Cgdmin=1.64p Cgs=44.9p Cjo=73.1p M=0.297 Vj=0.839)
TEXT 344 -216 Left 2 ;actual Class E amplifier
TEXT -552 336 Left 2 !.param freq 28.074Meg
TEXT -752 368 Left 2 ;.step param freq 28Meg 28.5Meg 0.05Meg
TEXT 840 -592 Left 2 ;10 -> 75, lpf
TEXT 1072 -184 Left 2 ;impedance matching network
TEXT 1760 -184 Left 2 ;low pass filter
TEXT 0 304 Left 2 !.model MRF101AN VDMOS(Rg=4 Rd=1 Rs=0.1 Vto=2.2 Kp=7.1 Lambda=0 mtriode=0.692 subthres=1.07m Cgdmax=5p Cgdmin=1p Cgs=130p Cjo=130p M=0.4 Vj=2.3 BV=140 tt=1n)
TEXT 0 272 Left 2 !.model BS170 VDMOS VTO=1.824 RG=270 RS=1.572 RD=1.436 RB=.768 KP=.1233 Cgdmax=20p Cgdmin=3p CGS=28p Cjo=35p Rds=1.2E8 IS=5p Bv=60 Ibv=10u Tt=161.6n
TEXT 0 240 Left 2 !.model 2N7000 VDMOS(Rg=3 Vto=1.6 Rd=0 Rs=.75 Rb=.14 Kp=.17 mtriode=1.25 Cgdmax=80p Cgdmin=12p Cgs=50p Cjo=50p Is=.04p mfg=Fairchild Vds=60 Ron=2 Qg=1.5n)
TEXT 0 208 Left 2 !.MODEL BS250P VDMOS pchan Rg=160 VTO=-3.193 RS=2.041 RD=0.697 IS=2E-13 KP=0.277 Cjo=105p LAMBDA=1.2E-2 RB=0.309 Rds=1.2E8 Cgdmax=57p Cgdmin=5p CGS=47p TT=86.56n BV=45 IBV=10u
TEXT -1152 -264 Left 2 !.MODEL LG AKO: 2N3904 (Bf=60)
TEXT -1152 -240 Left 2 !.temp 37
TEXT 56 -96 Left 2 ;0.5W
