.MODEL MN7000 NMOS (LEVEL=1 VTO=2.4 KP=.17 GAMMA=1.76U
+ PHI=.75 LAMBDA=1.25M RD=.35 RS=.448 IS=41.6F PB=.8 MJ=.46
+ CBD=44.4P CBS=53.3P CGSO=24N CGDO=20N CGBO=116N)
