Version 4
SHEET 1 880 680
WIRE 128 -352 16 -352
WIRE 224 -352 128 -352
WIRE 416 -352 224 -352
WIRE 512 -352 416 -352
WIRE 128 -288 128 -352
WIRE 416 -288 416 -352
WIRE 224 -256 224 -272
WIRE 320 -256 224 -256
WIRE 224 -224 224 -256
WIRE 512 -224 512 -272
WIRE 128 -176 128 -208
WIRE 160 -176 128 -176
WIRE 416 -176 416 -208
WIRE 448 -176 416 -176
WIRE 128 -96 128 -176
WIRE 416 -96 416 -176
WIRE 224 -64 224 -128
WIRE 512 -64 512 -128
WIRE 0 -16 -128 -16
WIRE 128 -16 64 -16
WIRE 160 -16 128 -16
WIRE 320 -16 320 -256
WIRE 352 -16 320 -16
WIRE 448 -16 416 -16
WIRE -208 48 -208 -16
WIRE 224 48 224 32
WIRE 512 48 512 32
FLAG -208 128 0
FLAG 16 -272 0
FLAG 128 64 0
FLAG 64 -176 0
FLAG 224 128 0
FLAG 416 64 0
FLAG 352 -176 0
FLAG 512 128 0
SYMBOL voltage -208 32 R0
WINDOW 123 24 132 Left 0
WINDOW 39 -112 115 Left 2
WINDOW 3 -491 83 Left 2
SYMATTR SpiceLine Rser=0
SYMATTR Value PULSE(0 3.3 0 1n 1n {0.5/freq} {1/freq})
SYMATTR InstName Vgen1
SYMBOL res -112 -32 R90
WINDOW 0 0 56 VBottom 2
WINDOW 3 32 56 VTop 2
SYMATTR InstName R1
SYMATTR Value 330
SYMBOL npn 160 -224 R0
SYMATTR InstName Q1
SYMATTR Value Q
SYMBOL npn 160 -64 R0
SYMATTR InstName Q2
SYMATTR Value Q
SYMBOL res 208 -368 R0
SYMATTR InstName R2
SYMATTR Value 500
SYMBOL voltage 16 -368 R0
WINDOW 0 24 96 Left 2
WINDOW 3 24 16 Left 2
WINDOW 123 0 0 Left 0
WINDOW 39 0 0 Left 0
SYMATTR InstName V1
SYMATTR Value 13.3
SYMBOL res 112 -112 R0
SYMATTR InstName R3
SYMATTR Value 10k
SYMBOL res 112 -32 R0
SYMATTR InstName R4
SYMATTR Value 10k
SYMBOL cap 128 -192 R90
WINDOW 0 0 32 VBottom 2
WINDOW 3 32 32 VTop 2
SYMATTR InstName C1
SYMATTR Value 0.022µ
SYMBOL cap 64 -32 R90
WINDOW 0 0 32 VBottom 2
WINDOW 3 32 32 VTop 2
SYMATTR InstName C2
SYMATTR Value 0.022µ
SYMBOL res 112 -304 R0
SYMATTR InstName R5
SYMATTR Value 22k
SYMBOL npn 448 -224 R0
SYMATTR InstName Q3
SYMATTR Value Q
SYMBOL npn 448 -64 R0
SYMATTR InstName Q4
SYMATTR Value Q
SYMBOL res 400 -112 R0
SYMATTR InstName R6
SYMATTR Value 10k
SYMBOL res 400 -32 R0
SYMATTR InstName R7
SYMATTR Value 10k
SYMBOL cap 416 -192 R90
WINDOW 0 0 32 VBottom 2
WINDOW 3 32 32 VTop 2
SYMATTR InstName C3
SYMATTR Value 0.022µ
SYMBOL res 400 -304 R0
SYMATTR InstName R8
SYMATTR Value 22k
SYMBOL res 496 -368 R0
SYMATTR InstName R9
SYMATTR Value 165
SYMBOL cap 416 -32 R90
WINDOW 0 0 32 VBottom 2
WINDOW 3 32 32 VTop 2
SYMATTR InstName C4
SYMATTR Value 0.022µ
SYMBOL res 208 32 R0
SYMATTR InstName R10
SYMATTR Value 165
SYMBOL res 496 32 R0
SYMATTR InstName R11
SYMATTR Value 20
TEXT -448 208 Left 2 !.param freq 28.074Meg
TEXT -456 232 Left 2 !.tran 0 1m 100u 100p
TEXT -872 -248 Left 2 !.model Q AKO: 2N3904
