Version 4
SHEET 1 1044 680
WIRE 224 -352 128 -352
WIRE 368 -352 224 -352
WIRE 128 -288 128 -352
WIRE 368 -288 368 -352
WIRE 224 -240 224 -272
WIRE 304 -240 224 -240
WIRE 224 -224 224 -240
WIRE 128 -176 128 -208
WIRE 160 -176 128 -176
WIRE 976 -160 880 -160
WIRE 128 -96 128 -176
WIRE 880 -96 880 -160
WIRE 224 -64 224 -128
WIRE 976 -32 976 -80
WIRE 128 -16 -128 -16
WIRE 160 -16 128 -16
WIRE 880 16 880 -16
WIRE 912 16 880 16
WIRE -208 48 -208 -16
WIRE 224 48 224 32
WIRE 880 96 880 16
WIRE 976 128 976 64
WIRE 784 176 784 -64
WIRE 816 176 784 176
WIRE 912 176 880 176
WIRE 976 240 976 224
FLAG -208 128 0
FLAG 16 -272 0
FLAG 128 64 0
FLAG 64 -176 0
FLAG 224 128 0
FLAG 880 256 0
FLAG 816 16 0
FLAG 976 320 0
FLAG 368 -112 0
SYMBOL voltage -208 32 R0
WINDOW 123 24 132 Left 0
WINDOW 39 -112 115 Left 2
WINDOW 3 -491 83 Left 2
SYMATTR SpiceLine Rser=0
SYMATTR Value PULSE(0 3.3 0 1n 1n {0.5/freq} {1/freq})
SYMATTR InstName Vgen1
SYMBOL res -112 -32 R90
WINDOW 0 0 56 VBottom 2
WINDOW 3 32 56 VTop 2
SYMATTR InstName R1
SYMATTR Value 330
SYMBOL npn 160 -64 R0
SYMATTR InstName Q2
SYMATTR Value Q
SYMBOL res 208 -368 R0
SYMATTR InstName R2
SYMATTR Value 330
SYMBOL voltage 16 -368 R0
WINDOW 0 24 96 Left 2
WINDOW 3 24 16 Left 2
WINDOW 123 0 0 Left 0
WINDOW 39 0 0 Left 0
SYMATTR InstName V1
SYMATTR Value 13.3
SYMBOL res 112 -112 R0
SYMATTR InstName R3
SYMATTR Value 10k
SYMBOL res 112 -32 R0
SYMATTR InstName R4
SYMATTR Value 2.2k
SYMBOL cap 128 -192 R90
WINDOW 0 0 32 VBottom 2
WINDOW 3 32 32 VTop 2
SYMATTR InstName C1
SYMATTR Value 0.022µ
SYMBOL res 112 -304 R0
SYMATTR InstName R5
SYMATTR Value 22k
SYMBOL npn 912 -32 R0
SYMATTR InstName Q3
SYMATTR Value Q
SYMBOL npn 912 128 R0
SYMATTR InstName Q4
SYMATTR Value Q
SYMBOL res 864 80 R0
SYMATTR InstName R6
SYMATTR Value 10k
SYMBOL res 864 160 R0
SYMATTR InstName R7
SYMATTR Value 10k
SYMBOL cap 880 0 R90
WINDOW 0 0 32 VBottom 2
WINDOW 3 32 32 VTop 2
SYMATTR InstName C3
SYMATTR Value 0.022µ
SYMBOL res 864 -112 R0
SYMATTR InstName R8
SYMATTR Value 22k
SYMBOL res 960 -176 R0
SYMATTR InstName R9
SYMATTR Value 165
SYMBOL cap 880 160 R90
WINDOW 0 0 32 VBottom 2
WINDOW 3 32 32 VTop 2
SYMATTR InstName C4
SYMATTR Value 0.022µ
SYMBOL res 960 224 R0
SYMATTR InstName R11
SYMATTR Value 20
SYMBOL res 208 32 R0
SYMATTR InstName R10
SYMATTR Value 50
SYMBOL npn 160 -224 R0
SYMATTR InstName Q1
SYMATTR Value Q
SYMBOL npn 304 -288 R0
SYMATTR InstName Q5
SYMATTR Value Q
SYMBOL res 352 -208 R0
SYMATTR InstName R12
SYMATTR Value 165
TEXT -448 208 Left 2 !.param freq 28.074Meg
TEXT -456 232 Left 2 !.tran 0 1m 100u 100p
TEXT -872 -248 Left 2 !.model Q AKO: 2N3904 (Bf=400)
