Version 4
SHEET 1 880 680
WIRE 128 -352 16 -352
WIRE 224 -352 128 -352
WIRE 128 -288 128 -352
WIRE 224 -224 224 -272
WIRE 128 -176 128 -208
WIRE 160 -176 128 -176
WIRE 128 -96 128 -176
WIRE 224 -64 224 -128
WIRE 0 -16 -128 -16
WIRE 128 -16 64 -16
WIRE 160 -16 128 -16
WIRE -208 48 -208 -16
WIRE 224 128 224 32
FLAG -208 128 0
FLAG 16 -272 0
FLAG 128 64 0
FLAG 64 -176 0
FLAG 224 128 0
SYMBOL voltage -208 32 R0
WINDOW 123 24 132 Left 0
WINDOW 39 -112 115 Left 2
WINDOW 3 -491 83 Left 2
SYMATTR SpiceLine Rser=0
SYMATTR Value PULSE(0 3.3 0 1n 1n {0.5/freq} {1/freq})
SYMATTR InstName Vgen1
SYMBOL res -112 -32 R90
WINDOW 0 0 56 VBottom 2
WINDOW 3 32 56 VTop 2
SYMATTR InstName R1
SYMATTR Value 330
SYMBOL npn 160 -224 R0
SYMATTR InstName Q1
SYMATTR Value 2N3904
SYMBOL npn 160 -64 R0
SYMATTR InstName Q2
SYMATTR Value 2N3904
SYMBOL res 208 -368 R0
SYMATTR InstName R2
SYMATTR Value 165
SYMBOL voltage 16 -368 R0
WINDOW 0 24 96 Left 2
WINDOW 3 24 16 Left 2
WINDOW 123 0 0 Left 0
WINDOW 39 0 0 Left 0
SYMATTR InstName V1
SYMATTR Value 13.3
SYMBOL res 112 -112 R0
SYMATTR InstName R3
SYMATTR Value 10k
SYMBOL res 112 -32 R0
SYMATTR InstName R4
SYMATTR Value 10k
SYMBOL cap 128 -192 R90
WINDOW 0 0 32 VBottom 2
WINDOW 3 32 32 VTop 2
SYMATTR InstName C1
SYMATTR Value 0.022µ
SYMBOL cap 64 -32 R90
WINDOW 0 0 32 VBottom 2
WINDOW 3 32 32 VTop 2
SYMATTR InstName C2
SYMATTR Value 0.022µ
SYMBOL res 112 -304 R0
SYMATTR InstName R5
SYMATTR Value 22k
TEXT -448 208 Left 2 !.param freq 28.074Meg
TEXT -456 232 Left 2 !.tran 0 1m 100u 100p
