Version 4
SHEET 1 1948 676
WIRE 0 -272 -320 -272
WIRE 272 -272 0 -272
WIRE 0 -224 0 -272
WIRE 272 -224 272 -272
WIRE 272 -112 272 -144
WIRE 448 -112 272 -112
WIRE 528 -112 448 -112
WIRE 656 -112 592 -112
WIRE 800 -112 736 -112
WIRE 0 -96 0 -144
WIRE 800 -64 800 -112
WIRE 448 -48 448 -112
WIRE -240 -32 -240 -144
WIRE -272 -16 -832 -16
WIRE 272 -16 272 -112
WIRE -192 0 -208 0
WIRE 224 0 -192 0
WIRE -272 16 -384 16
WIRE -320 32 -320 -272
WIRE -240 32 -320 32
WIRE -384 64 -384 16
WIRE -272 64 -384 64
WIRE -192 64 -192 0
WIRE 224 64 224 0
WIRE 448 64 448 16
WIRE 800 64 800 16
WIRE -832 80 -832 -16
WIRE 272 80 272 64
WIRE -384 112 -384 64
WIRE 272 112 272 80
WIRE -832 176 -832 160
FLAG 272 112 0
FLAG 0 -96 0
FLAG 448 64 0
FLAG 800 64 0
FLAG -832 176 0
FLAG -384 192 0
FLAG -240 -144 0
SYMBOL voltage 0 -240 R0
WINDOW 123 24 132 Left 0
WINDOW 39 0 0 Left 0
SYMATTR InstName Vbattery
SYMATTR Value 12
SYMBOL ind 256 -240 R0
SYMATTR InstName L1
SYMATTR Value 3.7389µH
SYMBOL cap 432 -48 R0
SYMATTR InstName C1
SYMATTR Value 350pF
SYMBOL cap 592 -128 R90
WINDOW 0 0 32 VBottom 0
WINDOW 3 32 32 VTop 0
SYMATTR InstName C2
SYMATTR Value 93pF
SYMBOL ind 640 -96 R270
WINDOW 0 32 56 VTop 0
WINDOW 3 5 56 VBottom 0
SYMATTR InstName L2
SYMATTR Value 373.89nH
SYMBOL res 784 -80 R0
SYMATTR InstName RLoad
SYMATTR Value 3.1
SYMBOL nmos 224 -16 R0
SYMATTR InstName M1
SYMATTR Value RD16HHF1
SYMBOL voltage -832 64 R0
WINDOW 123 24 132 Left 0
WINDOW 39 24 124 Left 2
SYMATTR SpiceLine Rser=330
SYMATTR InstName Vgen2
SYMATTR Value PULSE(0 3.3 0 1n 1n 17.81n 35.62n)
SYMBOL res -400 96 R0
SYMATTR InstName R1
SYMATTR Value 1k
SYMBOL res -176 48 R90
WINDOW 0 86 57 VBottom 2
WINDOW 3 32 56 VTop 2
SYMATTR InstName R3
SYMATTR Value 3.3k
SYMBOL OpAmps\\LT1818 -240 0 M180
SYMATTR InstName U1
TEXT 0 280 Left 2 !.model MySwitch SW(Ron= .0003250389 Roff=10000 Vt=3.5 Vh=0)
TEXT 0 312 Left 2 !.tran 0 30u 25u 100p startup
TEXT 0 376 Left 2 ;ClassE - www.TonneSoftware.com
TEXT -336 248 Left 2 !.model RD16HHF1 VDMOS(Rg=987m Rd=0m Rs=111m Vto=3.19 Kp=0.495 Lambda=0 mtriode=0.804 subthres=2.37e-02 Cgdmax=11.6p Cgdmin=1.64p Cgs=44.9p Cjo=73.1p M=0.297 Vj=0.839)
TEXT -904 -136 Left 2 ;preamp, using a very high slew rate op-amp
TEXT -1032 -104 Left 2 ;this is needed to amplify the 3.3V square wave to 12V
TEXT 344 -216 Left 2 ;actual Class E amplifier
