Version 4
SHEET 1 1104 392
WIRE 272 -272 0 -272
WIRE 0 -224 0 -272
WIRE 272 -224 272 -272
WIRE 272 -112 272 -144
WIRE 448 -112 272 -112
WIRE 528 -112 448 -112
WIRE 656 -112 592 -112
WIRE 800 -112 736 -112
WIRE 0 -96 0 -144
WIRE 448 -48 448 -112
WIRE 800 -48 800 -112
WIRE 272 -16 272 -112
WIRE 64 0 0 0
WIRE 224 0 144 0
WIRE 224 48 192 48
WIRE 448 64 448 16
WIRE 800 64 800 32
WIRE 0 80 0 0
WIRE 192 112 192 48
WIRE 272 112 272 64
WIRE 0 208 0 160
FLAG 192 112 0
FLAG 0 208 0
FLAG 272 112 0
FLAG 0 -96 0
FLAG 448 64 0
FLAG 800 64 0
SYMBOL voltage 0 -240 R0
WINDOW 123 24 132 Left 0
SYMATTR InstName Vbattery
SYMATTR Value 12
SYMBOL voltage 0 64 R0
WINDOW 123 24 132 Left 0
WINDOW 39 0 0 Left 0
SYMATTR InstName Vgen
SYMATTR Value PULSE(0 3.3 0 1n 1n 12.81n 35.62n)
SYMBOL res 160 -16 R90
WINDOW 0 0 56 VBottom 0
WINDOW 3 32 56 VTop 0
SYMATTR InstName RGen
SYMATTR Value 10
SYMBOL ind 256 -240 R0
SYMATTR InstName L1
SYMATTR Value 100µ
SYMBOL sw 272 80 M180
WINDOW 0 12 104 Left 0
WINDOW 3 17 11 Left 0
SYMATTR InstName S1
SYMATTR Value MySwitch
SYMBOL cap 432 -48 R0
SYMATTR InstName C1
SYMATTR Value 170pF
SYMBOL cap 592 -128 R90
WINDOW 0 0 32 VBottom 0
WINDOW 3 32 32 VTop 0
SYMATTR InstName C2
SYMATTR Value 115pF
SYMBOL ind 640 -96 R270
WINDOW 0 32 56 VTop 0
WINDOW 3 5 56 VBottom 0
SYMATTR InstName L2
SYMATTR Value 373.89nH
SYMBOL res 784 -64 R0
SYMATTR InstName R1
SYMATTR Value 8.25
TEXT 0 280 Left 2 !.model MySwitch SW(Ron= .0003250389 Roff=10000 Vt=2.5 Vh=0)
TEXT 0 312 Left 2 !.tran 0 40u 39u 0.1n startup
TEXT 0 376 Left 2 ;ClassE - www.TonneSoftware.com
TEXT 656 -184 Left 2 ;L total = 494.303nH
