Version 4
SHEET 1 1352 680
WIRE 112 0 48 0
WIRE 256 0 176 0
WIRE 416 0 256 0
WIRE 560 0 496 0
WIRE 832 0 560 0
WIRE 912 0 832 0
WIRE 1088 0 976 0
WIRE 1264 0 1168 0
WIRE 48 32 48 0
WIRE 256 112 256 80
WIRE 1264 192 1264 0
WIRE 560 304 560 0
WIRE 832 304 832 0
WIRE 144 384 -112 384
WIRE 512 384 224 384
WIRE 560 448 560 400
WIRE 832 448 832 368
WIRE 1264 448 1264 272
WIRE -112 464 -112 384
FLAG 48 32 0
FLAG 256 112 0
FLAG -112 464 0
FLAG 560 448 0
FLAG 832 448 0
FLAG 1264 448 0
SYMBOL cap 176 -16 R90
WINDOW 0 0 32 VBottom 2
WINDOW 3 32 32 VTop 2
SYMATTR InstName C1
SYMATTR Value 100µ
SYMBOL voltage 256 -16 R0
WINDOW 123 0 0 Left 0
WINDOW 39 24 124 Left 2
SYMATTR InstName V1
SYMATTR Value 12.5
SYMATTR SpiceLine Rser=0.1
SYMBOL ind 512 -16 R90
WINDOW 0 5 56 VBottom 2
WINDOW 3 32 56 VTop 2
SYMATTR InstName L1
SYMATTR Value 270µ
SYMBOL InfineonNMOS\\SPP21N50C3_L1 512 304 R0
SYMATTR InstName U1
SYMBOL voltage 240 384 R90
WINDOW 0 -32 56 VBottom 2
WINDOW 3 32 56 VTop 2
WINDOW 123 0 0 Left 0
WINDOW 39 0 0 Left 0
SYMATTR InstName V2
SYMATTR Value PULSE(0 3.3 0 1n 1n 12.81n 35.62n)
SYMBOL cap 816 304 R0
SYMATTR InstName C2
SYMATTR Value 446.517p
SYMBOL ind 1184 -16 R90
WINDOW 0 5 56 VBottom 2
WINDOW 3 32 56 VTop 2
SYMATTR InstName L2
SYMATTR Value 102.447n
SYMBOL cap 976 -16 R90
WINDOW 0 0 32 VBottom 2
WINDOW 3 32 32 VTop 2
SYMATTR InstName C3
SYMATTR Value 573.719p
SYMBOL res 1248 176 R0
SYMATTR InstName R1
SYMATTR Value 3.1
TEXT -120 -272 Left 2 !.tran 0 100u 50u 100p startup
