Version 4
SHEET 1 936 680
WIRE 848 -176 736 -176
WIRE 592 -144 592 -160
WIRE 592 -144 480 -144
WIRE 736 -144 736 -176
WIRE 736 -144 592 -144
WIRE 592 -128 592 -144
WIRE 736 -128 736 -144
WIRE 848 -80 848 -96
WIRE 480 -32 480 -144
WIRE 592 -32 592 -48
WIRE 640 -32 592 -32
WIRE 736 -32 736 -48
WIRE 736 -32 704 -32
WIRE 784 -32 736 -32
WIRE 592 0 592 -32
WIRE 256 48 224 48
WIRE 480 48 336 48
WIRE 528 48 480 48
WIRE 848 48 848 16
WIRE 592 112 592 96
WIRE 224 128 224 48
WIRE 736 192 736 48
FLAG 224 208 0
FLAG 592 -240 0
FLAG 480 128 0
FLAG 592 192 0
FLAG 736 192 0
FLAG 848 128 0
SYMBOL voltage 224 112 R0
WINDOW 123 24 132 Left 0
WINDOW 39 -112 115 Left 2
WINDOW 3 -491 83 Left 2
SYMATTR SpiceLine Rser=0
SYMATTR Value PULSE(0 3.3 0 1n 1n {0.5/freq} {1/freq})
SYMATTR InstName Vgen1
SYMBOL res 352 32 R90
WINDOW 0 0 56 VBottom 2
WINDOW 3 32 56 VTop 2
SYMATTR InstName R1
SYMATTR Value 330
SYMBOL npn 528 0 R0
SYMATTR InstName Q1
SYMATTR Value 2N3904
SYMBOL res 576 -144 R0
SYMATTR InstName R2
SYMATTR Value 400
SYMBOL voltage 592 -144 R180
WINDOW 0 24 96 Left 2
WINDOW 3 24 16 Left 2
WINDOW 123 0 0 Left 0
WINDOW 39 0 0 Left 0
SYMATTR InstName V1
SYMATTR Value 12
SYMBOL res 464 -48 R0
SYMATTR InstName R4
SYMATTR Value 3k
SYMBOL res 464 32 R0
SYMATTR InstName R5
SYMATTR Value 100
SYMBOL res 576 96 R0
SYMATTR InstName R3
SYMATTR Value 10
SYMBOL npn 784 -80 R0
SYMATTR InstName Q2
SYMATTR Value 2N3904
SYMBOL cap 704 -48 R90
WINDOW 0 0 32 VBottom 2
WINDOW 3 32 32 VTop 2
SYMATTR InstName C1
SYMATTR Value 100p
SYMBOL res 720 -144 R0
SYMATTR InstName R6
SYMATTR Value 16k
SYMBOL res 720 -48 R0
SYMATTR InstName R7
SYMATTR Value 1k
SYMBOL res 832 32 R0
SYMATTR InstName R8
SYMATTR Value 10
SYMBOL res 832 -192 R0
SYMATTR InstName R9
SYMATTR Value 150
TEXT 0 304 Left 2 !.param freq 28074000
TEXT -264 328 Left 2 !.tran 0 100u 0u
TEXT -488 -80 Left 2 ;PULSE(0 3.3 0 1n 1n {0.5/freq} {1/freq})
