Version 4
SHEET 1 2568 680
WIRE 448 -80 224 -80
WIRE 224 0 224 -80
WIRE 80 32 64 32
WIRE 448 48 448 0
WIRE 224 96 224 80
WIRE 384 96 224 96
WIRE 0 144 0 32
WIRE 0 144 -48 144
WIRE 80 144 80 32
WIRE 128 144 80 144
WIRE 160 144 128 144
WIRE 128 192 128 144
WIRE 128 288 128 272
WIRE 224 288 224 192
FLAG -48 224 0
FLAG 224 -160 0
FLAG 224 288 0
FLAG 128 288 0
FLAG 448 144 0
SYMBOL npn 160 96 R0
SYMATTR InstName Q1
SYMATTR Value 2N3904
SYMBOL res 208 -16 R0
SYMATTR InstName R1
SYMATTR Value 376
SYMBOL voltage -48 128 R0
WINDOW 0 -43 0 Left 2
WINDOW 3 -525 30 Left 2
WINDOW 123 0 0 Left 0
WINDOW 39 0 0 Left 0
SYMATTR InstName V1
SYMATTR Value PULSE(0 3.3 0 1n 1n {0.5/freq} {1/freq})
SYMBOL res 96 128 R90
WINDOW 0 0 56 VBottom 2
WINDOW 3 32 56 VTop 2
SYMATTR InstName R2
SYMATTR Value 825
SYMBOL voltage 224 -64 R180
WINDOW 0 24 96 Left 2
WINDOW 3 24 16 Left 2
WINDOW 123 0 0 Left 0
WINDOW 39 0 0 Left 0
SYMATTR InstName V2
SYMATTR Value 12
SYMBOL res 112 176 R0
SYMATTR InstName R3
SYMATTR Value 40
SYMBOL cap 0 48 R270
WINDOW 0 32 32 VTop 2
WINDOW 3 0 32 VBottom 2
SYMATTR InstName C1
SYMATTR Value 120p
SYMBOL npn 384 48 R0
SYMATTR InstName Q2
SYMATTR Value 2N3904
SYMBOL res 432 -96 R0
SYMATTR InstName R4
SYMATTR Value 100
TEXT -80 248 Left 2 !.tran 0 10u 9u
TEXT -576 184 Left 2 !.param freq 28074000
TEXT 528 -120 Left 2 !.model BS170 VDMOS VTO=1.824 RG=270 RS=1.572 RD=1.436 RB=.768 KP=.1233 Cgdmax=20p Cgdmin=3p CGS=28p Cjo=35p Rds=1.2E8 IS=5p Bv=60 Ibv=10u Tt=161.6n
