Version 4
SHEET 1 2568 680
WIRE 224 -80 112 -80
WIRE 352 -80 224 -80
WIRE 480 -80 352 -80
WIRE 352 -64 352 -80
WIRE 112 -48 112 -80
WIRE 480 -32 480 -80
WIRE 112 64 112 32
WIRE 224 96 224 80
WIRE 288 96 224 96
WIRE 416 96 352 96
WIRE 0 144 -208 144
WIRE 112 144 80 144
WIRE 160 144 112 144
WIRE 224 208 224 192
WIRE 480 208 480 144
WIRE 112 288 112 224
WIRE 352 288 352 176
FLAG -208 224 0
FLAG 224 -160 0
FLAG 224 288 0
FLAG 112 288 0
FLAG 480 288 0
FLAG 352 288 0
SYMBOL npn 160 96 R0
SYMATTR InstName Q1
SYMATTR Value 2N3904
SYMBOL res 208 -16 R0
SYMATTR InstName R1
SYMATTR Value 330
SYMBOL voltage -208 128 R0
WINDOW 0 -43 0 Left 2
WINDOW 3 -525 30 Left 2
WINDOW 123 0 0 Left 0
WINDOW 39 0 0 Left 0
SYMATTR InstName V1
SYMATTR Value PULSE(0 3.3 0 2n 2n {0.5/freq} {1/freq})
SYMBOL res 96 128 R90
WINDOW 0 0 56 VBottom 2
WINDOW 3 32 56 VTop 2
SYMATTR InstName R2
SYMATTR Value 330
SYMBOL voltage 224 -64 R180
WINDOW 0 24 96 Left 2
WINDOW 3 24 16 Left 2
WINDOW 123 0 0 Left 0
WINDOW 39 0 0 Left 0
SYMATTR InstName V2
SYMATTR Value 12
SYMBOL res 96 48 R0
SYMATTR InstName R3
SYMATTR Value 3.3k
SYMBOL res 208 192 R0
SYMATTR InstName R6
SYMATTR Value 50
SYMBOL res 96 128 R0
SYMATTR InstName R7
SYMATTR Value 330
SYMBOL npn 416 48 R0
SYMATTR InstName Q2
SYMATTR Value 2N3904
SYMBOL res 464 -48 R0
SYMATTR InstName R4
SYMATTR Value 100
SYMBOL res 464 192 R0
SYMATTR InstName R5
SYMATTR Value 20
SYMBOL res 336 80 R0
SYMATTR InstName R8
SYMATTR Value 100
SYMBOL res 336 0 R0
SYMATTR InstName R9
SYMATTR Value 1k
SYMBOL ind 208 -96 R0
SYMATTR InstName L1
SYMATTR Value 10n
SYMBOL ind 96 -64 R0
SYMATTR InstName L2
SYMATTR Value 10n
SYMBOL ind 336 -80 R0
SYMATTR InstName L3
SYMATTR Value 10n
SYMBOL cap 352 80 R90
WINDOW 0 0 32 VBottom 2
WINDOW 3 32 32 VTop 2
SYMATTR InstName C1
SYMATTR Value 10p
TEXT -576 216 Left 2 !.tran 0 10u 9u
TEXT -576 184 Left 2 !.param freq 28074000
TEXT 528 -120 Left 2 !.model BS170 VDMOS VTO=1.824 RG=270 RS=1.572 RD=1.436 RB=.768 KP=.1233 Cgdmax=20p Cgdmin=3p CGS=28p Cjo=35p Rds=1.2E8 IS=5p Bv=60 Ibv=10u Tt=161.6n
